96
# ORCA AIMD Position Step 90, t=180.00 fs, E_Pot=-2665.02409770 Hartree, Unit is Angstrom
 C     -0.4206394264     -1.0584859935      0.5108611030
 C     -1.1126557687      0.2877889863      0.3337453654
 C      0.2196164566      0.9128072189      0.3448705790
 C      0.8895710431     -0.3884988909      0.3602409863
 C      2.2041058726     -0.8128775393      0.3565139099
 C     -2.4061559498      0.7809534499      0.3003429781
 C      3.2645586714      0.1570711270      0.0728716127
 C      2.5668370877     -2.1827389679     -0.0369059793
 C      3.8760649884     -2.6424392153     -0.1459854923
 C      4.5590577757     -0.3168850505     -0.2720789804
 C      4.9122330436     -1.7186063847     -0.3026342912
 N      6.1627671182     -2.1082870896     -0.6253147577
 C      6.3886373323     -3.4748047546     -1.0101393145
 C      7.0712701011     -1.1955967856     -1.1474010240
 O      3.1082333378      1.4946701864      0.3786776190
 O      1.6865393000     -3.1931024642     -0.0242977647
 C     -2.7588597131      2.1793936281      0.4198356554
 C     -3.5104545364     -0.1272114845      0.1913324545
 O     -1.8234285402      3.1287020143      0.5475960405
 C     -4.0595368048      2.6011923068      0.4134108974
 C     -4.7953187873      0.3415114578      0.1794894739
 O     -3.3190251326     -1.4028343476      0.0198491856
 C     -5.1645323581      1.6991786108      0.2262785589
 N     -6.4432993103      2.1252767381      0.1636610424
 C     -7.4919220162      1.0963847003      0.1319944894
 C     -6.7386799711      3.5352278952      0.3226101664
 O     -0.8894801776     -2.1703832291      0.5614540642
 O      0.6010801835      2.0989983857      0.3476415442
 H      3.7960412307     -3.5430454997     -0.7196549864
 H      5.1155224147      0.6284302675     -0.4385366322
 H      6.0989208811     -3.8297027573     -1.9950177463
 H      6.0041557996     -4.1809646470     -0.2564336268
 H      7.4434118188     -3.7321967365     -0.8573757063
 H      7.1260279926     -1.0425872451     -2.2659628158
 H      8.0991639950     -1.4758217435     -0.8517661238
 H      6.9413049934     -0.2012593788     -0.6680566575
 H      2.2342444962      1.8782540192      0.2212869375
 H      0.8346238502     -2.8460517011      0.2972940041
 H     -0.8758362342      2.7479665643      0.4736338623
 H     -4.2307644343      3.6729809673      0.4320711320
 H     -5.4772232083     -0.4994107278      0.0405428644
 H     -2.4386796552     -1.6992985351      0.2781671915
 H     -7.3973438265      0.4457590129     -0.7292433204
 H     -8.4743096267      1.6529880404      0.0692172495
 H     -7.4647953728      0.5228449461      1.0867836593
 H     -6.1862607842      4.1456756823     -0.4130641820
 H     -6.4753049805      3.8869686402      1.3296313409
 H     -7.8108691581      3.7294285168      0.1649085246
 H     -6.8964868130      3.9568457115     -4.5566490771
 H      3.3746643590     -3.4890457236     -4.7420406399
 H      5.6277022654     -3.7052393416     -5.3805753100
 H      6.1389461068     -3.1237951554     -7.0241718288
 H      4.4604979662     -3.4123621534     -6.7184984789
 H      6.5589343850     -0.1418223284     -5.3566428588
 H      4.4428663312      0.8144743653     -4.6795634025
 C     -1.0511220993     -1.0306443936     -3.0719200819
 C     -1.7485706759      0.3162055809     -3.3068334431
 C     -0.4242530966      0.9600491963     -3.4727253922
 C      0.2481085377     -0.3317652223     -3.3686404216
 C      1.5600280719     -0.7076029121     -3.6641732134
 C     -2.9999367779      0.7867703537     -3.5409330342
 C      2.6168579172      0.2911754023     -4.0082377556
 C      1.9494366812     -2.0334184385     -4.1245911308
 C      3.2313050862     -2.4230963663     -4.6213985127
 C      3.8329373074     -0.1048939207     -4.5696253151
 C      4.1703351699     -1.4089197606     -4.9632323792
 N      5.1447497775     -1.6759297623     -5.8989322500
 C      5.3685852517     -3.0327464006     -6.2211516044
 C      6.1240670548     -0.6636402477     -6.2022415055
 O      2.5882159716      1.5945724566     -3.6824160990
 O      1.1203683050     -3.1294611394     -4.0248447780
 C     -3.4243206905      2.1478617656     -3.3101210689
 C     -4.0352421712     -0.1190820144     -3.8315901666
 O     -2.5296909869      3.0432153550     -2.9788719936
 C     -4.7344994766      2.5217278211     -3.3933395165
 C     -5.3347715819      0.3071883796     -3.9380590987
 O     -3.7783413679     -1.3729878608     -4.0593804538
 C     -5.7852749074      1.6121368522     -3.7257401642
 N     -7.0658084498      1.9959844886     -3.7891327632
 C     -8.1117240205      0.9692089877     -3.9697473465
 C     -7.4271984074      3.4296442611     -3.7316434248
 O     -1.4702770087     -2.1642964033     -2.8874416275
 O     -0.0946998110      2.1473626008     -3.6281059996
 H      5.7146545114      0.0613824995     -6.9128245265
 H      6.9517885292     -1.1049068854     -6.7829917074
 H      1.6690303002      1.9666331287     -3.5630530062
 H      0.3991927237     -2.8524128784     -3.4651455920
 H     -1.6079827205      2.8352731587     -3.2693517470
 H     -4.9496761071      3.5599430045     -3.2230629996
 H     -5.9694906259     -0.4942893432     -4.2545850729
 H     -2.9648947441     -1.6939327318     -3.6056112880
 H     -7.7930711979      0.0691955206     -3.4117693409
 H     -8.1956956114      0.6829988512     -5.0508443540
 H     -9.0949843974      1.2537371198     -3.5776818547
 H     -7.1564017455      3.9106045267     -2.7584355405
 H     -8.4689014032      3.6013444322     -3.9166598877
